Circuit: * \\Mac\Home\Documents\Biomedical Project\Embedded-CSDT\Draft1.asc

Direct Newton iteration for .op point succeeded.

Date: Sun Feb 04 19:45:02 2018
Total elapsed time: 0.078 seconds.

tnom = 27
temp = 27
method = modified trap
totiter = 83
traniter = 80
tranpoints = 41
accept = 41
rejected = 0
matrix size = 5
fillins = 0
solver = Normal
Matrix Compiler1: 230 bytes object code size
Matrix Compiler2: 355 bytes object code size
